Version 4
SHEET 1 880 680
WIRE 64 -96 0 -96
WIRE 208 -96 144 -96
WIRE -80 -32 -144 -32
WIRE 0 -32 0 -96
WIRE 0 16 0 -32
WIRE 48 16 0 16
WIRE 208 32 208 -96
WIRE 208 32 112 32
WIRE 48 48 0 48
WIRE -112 96 -128 96
WIRE 0 96 0 48
WIRE 0 96 -32 96
WIRE -448 128 -464 128
WIRE -400 128 -448 128
WIRE -288 128 -320 128
WIRE -256 128 -288 128
WIRE 0 128 0 96
WIRE -464 160 -464 128
WIRE -256 160 -256 128
FLAG -448 128 vin_1
FLAG -288 128 vin_2
FLAG -256 240 0
FLAG -464 240 0
FLAG -128 96 vin_1
FLAG -144 -32 vin_2
FLAG 0 208 0
FLAG -1136 272 0
FLAG -1024 272 0
FLAG -1136 192 vee
FLAG 80 64 vee
FLAG -1024 192 vcc
FLAG 80 0 vcc
SYMBOL res -304 112 R90
WINDOW 0 0 56 VBottom 2
WINDOW 3 32 56 VTop 2
SYMATTR InstName R1
SYMATTR Value 10
SYMBOL res -240 256 R180
WINDOW 0 36 76 Left 2
WINDOW 3 36 40 Left 2
SYMATTR InstName R2
SYMATTR Value 1k
SYMBOL voltage -464 144 R0
WINDOW 123 0 0 Left 0
WINDOW 39 0 0 Left 0
SYMATTR InstName V1
SYMATTR Value 13
SYMBOL res 16 -48 R90
WINDOW 0 0 56 VBottom 2
WINDOW 3 32 56 VTop 2
SYMATTR InstName R3
SYMATTR Value 1k
SYMBOL res -16 80 R90
WINDOW 0 0 56 VBottom 2
WINDOW 3 32 56 VTop 2
SYMATTR InstName R4
SYMATTR Value 1k
SYMBOL res 160 -112 R90
WINDOW 0 0 56 VBottom 2
WINDOW 3 32 56 VTop 2
SYMATTR InstName R5
SYMATTR Value 10k
SYMBOL res 16 224 R180
WINDOW 0 36 76 Left 2
WINDOW 3 36 40 Left 2
SYMATTR InstName R6
SYMATTR Value 10k
SYMBOL AutoGenerated\\LM741_NS 80 -32 R0
SYMATTR InstName U1
SYMBOL voltage -1136 176 R0
WINDOW 123 0 0 Left 0
WINDOW 39 0 0 Left 0
SYMATTR InstName V2
SYMATTR Value -15
SYMBOL voltage -1024 176 R0
WINDOW 123 0 0 Left 0
WINDOW 39 0 0 Left 0
SYMATTR InstName V3
SYMATTR Value 15
TEXT -496 264 Left 2 !.tran 0.1
