Version 4
SHEET 1 880 680
WIRE 304 80 272 80
WIRE 448 80 368 80
WIRE 272 160 272 80
WIRE 304 160 272 160
WIRE 448 160 448 80
WIRE 448 160 384 160
WIRE 176 256 16 256
WIRE 16 272 16 256
WIRE 176 272 176 256
WIRE 272 272 272 160
WIRE 272 272 256 272
WIRE 320 272 272 272
WIRE 448 288 448 160
WIRE 448 288 384 288
WIRE 320 304 288 304
WIRE 288 352 288 304
FLAG 272 592 0
FLAG 384 592 0
FLAG 352 256 vcc
FLAG 384 512 vcc
FLAG 272 512 vee
FLAG 352 320 vee
FLAG 288 352 0
FLAG 448 288 Vb
FLAG 16 352 0
SYMBOL cap 368 64 R90
WINDOW 0 0 32 VBottom 2
WINDOW 3 32 32 VTop 2
SYMATTR InstName C1
SYMATTR Value 0.1µ
SYMBOL res 400 144 R90
WINDOW 0 0 56 VBottom 2
WINDOW 3 32 56 VTop 2
SYMATTR InstName R1
SYMATTR Value 250k
SYMBOL AutoGenerated\\LM741_NS 352 224 R0
SYMATTR InstName U1
SYMBOL voltage 272 496 R0
WINDOW 123 0 0 Left 0
WINDOW 39 0 0 Left 0
SYMATTR InstName V1
SYMATTR Value -15
SYMBOL voltage 384 496 R0
WINDOW 123 0 0 Left 0
WINDOW 39 0 0 Left 0
SYMATTR InstName V2
SYMATTR Value 15
SYMBOL res 272 256 R90
WINDOW 0 0 56 VBottom 2
WINDOW 3 32 56 VTop 2
SYMATTR InstName R2
SYMATTR Value 10k
SYMBOL voltage 16 256 R0
WINDOW 123 24 124 Left 2
WINDOW 39 0 0 Left 0
SYMATTR InstName V3
SYMATTR Value SINE(0 1 0 0 0 0 0.0001)
SYMATTR Value2 AC 1
TEXT -18 616 Left 2 !.ac dec 0.1 10 1000000
