Version 4
SHEET 1 880 680
WIRE 16 -336 -32 -336
WIRE 144 -336 96 -336
WIRE 176 -336 144 -336
WIRE 288 -336 256 -336
WIRE 144 -272 144 -336
WIRE -32 -144 -32 -336
WIRE -32 -144 -144 -144
WIRE 16 -144 -32 -144
WIRE 144 -144 144 -208
WIRE 144 -144 96 -144
WIRE 192 -144 144 -144
WIRE 448 -144 272 -144
WIRE -144 -112 -144 -144
WIRE 144 -80 144 -144
WIRE 320 -80 144 -80
WIRE 144 -64 144 -80
WIRE 448 -64 448 -144
WIRE 448 -64 384 -64
WIRE 320 -48 288 -48
WIRE 288 -32 288 -48
WIRE -32 64 -32 -144
WIRE 16 64 -32 64
WIRE 144 64 144 0
WIRE 144 64 96 64
WIRE 176 64 144 64
WIRE 288 64 256 64
FLAG -256 -368 0
FLAG -336 -368 0
FLAG -432 -368 0
FLAG -512 -368 0
FLAG -512 -448 -Vs
FLAG 288 64 -Vs
FLAG 288 -32 0
FLAG -336 -448 +Vs
FLAG 288 -336 +Vs
FLAG 352 -32 -Vo
FLAG -432 -448 -Vo
FLAG -256 -448 +Vo
FLAG 352 -96 +Vo
FLAG -144 -32 0
FLAG 448 -144 Vout
SYMBOL res 112 -160 R90
WINDOW 0 0 56 VBottom 2
WINDOW 3 32 56 VTop 2
SYMATTR InstName R1
SYMATTR Value 10K
SYMBOL res 288 -160 R90
WINDOW 0 0 56 VBottom 2
WINDOW 3 32 56 VTop 2
SYMATTR InstName R2
SYMATTR Value 10K
SYMBOL res 112 -352 R90
WINDOW 0 0 56 VBottom 2
WINDOW 3 32 56 VTop 2
SYMATTR InstName R3
SYMATTR Value 10k
SYMBOL res 272 -352 R90
WINDOW 0 0 56 VBottom 2
WINDOW 3 32 56 VTop 2
SYMATTR InstName R4
SYMATTR Value 20k
SYMBOL res 112 48 R90
WINDOW 0 0 56 VBottom 2
WINDOW 3 32 56 VTop 2
SYMATTR InstName R5
SYMATTR Value 10K
SYMBOL res 272 48 R90
WINDOW 0 0 56 VBottom 2
WINDOW 3 32 56 VTop 2
SYMATTR InstName R6
SYMATTR Value 20K
SYMBOL diode 160 0 R180
WINDOW 0 -42 33 Left 2
WINDOW 3 40 35 Left 2
SYMATTR InstName D1
SYMATTR Value MyDiode
SYMBOL diode 160 -208 R180
WINDOW 0 -46 33 Left 2
WINDOW 3 42 34 Left 2
SYMATTR InstName D2
SYMATTR Value MyDiode
SYMBOL AutoGenerated\\LM741_NS 352 -128 R0
WINDOW 3 16 121 Left 2
SYMATTR InstName U1
SYMBOL voltage -512 -464 R0
WINDOW 123 0 0 Left 0
WINDOW 39 0 0 Left 0
SYMATTR InstName V1
SYMATTR Value -10
SYMBOL voltage -432 -464 R0
WINDOW 123 0 0 Left 0
WINDOW 39 0 0 Left 0
SYMATTR InstName V2
SYMATTR Value -12
SYMBOL voltage -336 -464 R0
WINDOW 123 0 0 Left 0
WINDOW 39 0 0 Left 0
SYMATTR InstName V3
SYMATTR Value 10
SYMBOL voltage -256 -464 R0
WINDOW 123 0 0 Left 0
WINDOW 39 0 0 Left 0
SYMATTR InstName V4
SYMATTR Value 12
SYMBOL voltage -144 -128 R0
WINDOW 123 0 0 Left 0
WINDOW 39 0 0 Left 0
SYMATTR InstName V5
SYMATTR Value 5
TEXT -136 -424 Left 2 !.model MyDiode D(Ron=1m Roff=100Meg Vfwd=0)
TEXT -520 -312 Left 2 !.dc V5 -10 10 0.01
