Version 4
SHEET 1 932 680
WIRE 480 176 256 176
WIRE 544 176 480 176
WIRE 672 176 624 176
WIRE 720 176 672 176
WIRE 832 176 800 176
WIRE 256 240 256 176
WIRE 672 272 672 176
WIRE 688 272 672 272
WIRE 832 288 832 176
WIRE 832 288 752 288
WIRE 688 304 672 304
WIRE 480 400 480 176
WIRE 544 400 480 400
WIRE 672 400 672 304
WIRE 672 400 624 400
WIRE 720 400 672 400
WIRE 832 400 784 400
WIRE 672 496 672 400
WIRE 688 496 672 496
WIRE 832 512 832 400
WIRE 832 512 752 512
WIRE 688 528 656 528
WIRE 656 544 656 528
FLAG 256 320 0
FLAG 656 544 0
FLAG -112 0 -Vo
FLAG 720 544 -Vo
FLAG 720 320 -Vo
FLAG -192 0 +Vo
FLAG 720 480 +Vo
FLAG 720 256 +Vo
FLAG -192 80 0
FLAG -112 80 0
SYMBOL voltage 256 224 R0
SYMATTR InstName V1
SYMBOL voltage -192 -16 R0
WINDOW 123 0 0 Left 0
WINDOW 39 0 0 Left 0
SYMATTR InstName V2
SYMATTR Value 12
SYMBOL voltage -112 -16 R0
WINDOW 123 0 0 Left 0
WINDOW 39 0 0 Left 0
SYMATTR InstName V3
SYMATTR Value -12
SYMBOL res 640 160 R90
WINDOW 0 0 56 VBottom 2
WINDOW 3 32 56 VTop 2
SYMATTR InstName R1
SYMATTR Value 10K
SYMBOL res 816 160 R90
WINDOW 0 0 56 VBottom 2
WINDOW 3 32 56 VTop 2
SYMATTR InstName R2
SYMATTR Value 10k
SYMBOL res 640 384 R90
WINDOW 0 0 56 VBottom 2
WINDOW 3 32 56 VTop 2
SYMATTR InstName R3
SYMATTR Value 10K
SYMBOL diode 784 384 R90
WINDOW 0 0 32 VBottom 2
WINDOW 3 32 32 VTop 2
SYMATTR InstName D1
SYMBOL Opamps\\UniversalOpamp2 720 288 R0
SYMATTR InstName U1
SYMBOL Opamps\\UniversalOpamp2 720 512 R0
SYMATTR InstName U2
TEXT 128 -80 Left 2 !.model MyDiode D(Ron=1m Roff=100Meg Vfwd=0)
