Version 4
SHEET 1 880 680
WIRE 384 -64 256 -64
WIRE 592 -64 464 -64
WIRE 144 16 112 16
WIRE 256 16 256 -64
WIRE 256 16 224 16
WIRE 320 16 256 16
WIRE 400 16 384 16
WIRE 112 80 112 16
WIRE 256 144 256 16
WIRE 272 144 256 144
WIRE 400 160 400 16
WIRE 400 160 336 160
WIRE 480 160 400 160
WIRE 592 160 592 -64
WIRE 592 160 544 160
WIRE 272 176 256 176
WIRE 256 208 256 176
FLAG 112 160 0
FLAG 256 208 0
FLAG 816 -96 0
FLAG 720 -96 0
FLAG 816 -176 +Vo
FLAG 304 128 +Vo
FLAG 720 -176 -Vo
FLAG 304 192 -Vo
SYMBOL voltage 112 64 R0
WINDOW 123 0 0 Left 0
WINDOW 39 0 0 Left 0
WINDOW 0 -70 29 Left 2
WINDOW 3 -61 62 Left 2
SYMATTR InstName V1
SYMATTR Value 1
SYMBOL voltage 720 -192 R0
WINDOW 123 0 0 Left 0
WINDOW 39 0 0 Left 0
SYMATTR InstName V2
SYMATTR Value -12
SYMBOL voltage 816 -192 R0
WINDOW 123 0 0 Left 0
WINDOW 39 0 0 Left 0
SYMATTR InstName V3
SYMATTR Value 12
SYMBOL res 240 0 R90
WINDOW 0 0 56 VBottom 2
WINDOW 3 32 56 VTop 2
SYMATTR InstName R1
SYMATTR Value 10K
SYMBOL res 480 -80 R90
WINDOW 0 8 107 VBottom 2
WINDOW 3 -21 7 VTop 2
SYMATTR InstName R2
SYMATTR Value 10K
SYMBOL AutoGenerated\\LM741_NS 304 96 R0
WINDOW 0 24 116 Left 2
WINDOW 3 -23 155 Left 2
SYMATTR InstName U1
SYMBOL diode 320 32 R270
WINDOW 0 24 -8 VTop 2
WINDOW 3 48 97 VBottom 2
SYMATTR InstName D1
SYMATTR Value MyDiode
SYMBOL diode 480 176 R270
WINDOW 0 22 5 VTop 2
WINDOW 3 0 32 VBottom 2
SYMATTR InstName D2
SYMATTR Value MyDiode
TEXT 8 -160 Left 2 !.model MyDiode D(Ron=1m Roff=100Meg Vfwd=0)
TEXT 6 280 Left 2 !.dc V1 -10 10 0.001
