Version 4
SHEET 1 1064 680
WIRE 64 112 -16 112
WIRE 128 112 64 112
WIRE 256 112 208 112
WIRE 384 112 256 112
WIRE 512 112 464 112
WIRE -16 176 -16 112
WIRE 256 208 256 112
WIRE 304 208 256 208
WIRE 512 224 512 112
WIRE 512 224 368 224
WIRE 304 240 256 240
WIRE 64 336 64 112
WIRE 128 336 64 336
WIRE 256 336 256 240
WIRE 256 336 208 336
WIRE 384 336 256 336
WIRE 512 336 448 336
WIRE 256 432 256 336
WIRE 304 432 256 432
WIRE 512 448 512 336
WIRE 512 448 368 448
WIRE 304 464 240 464
WIRE 240 480 240 464
FLAG -16 256 0
FLAG 240 480 0
FLAG 48 -32 -Vo
FLAG 336 480 -Vo
FLAG 336 256 -Vo
FLAG -32 -32 +Vo
FLAG 336 416 +Vo
FLAG 336 192 +Vo
FLAG -32 48 0
FLAG 48 48 0
SYMBOL voltage -16 160 R0
WINDOW 123 0 0 Left 0
WINDOW 39 0 0 Left 0
SYMATTR InstName V1
SYMATTR Value 5
SYMBOL voltage -32 -48 R0
WINDOW 123 0 0 Left 0
WINDOW 39 0 0 Left 0
SYMATTR InstName V2
SYMATTR Value 12
SYMBOL voltage 48 -48 R0
WINDOW 123 0 0 Left 0
WINDOW 39 0 0 Left 0
SYMATTR InstName V3
SYMATTR Value -12
SYMBOL res 224 96 R90
WINDOW 0 0 56 VBottom 2
WINDOW 3 32 56 VTop 2
SYMATTR InstName R1
SYMATTR Value 10K
SYMBOL res 480 96 R90
WINDOW 0 0 56 VBottom 2
WINDOW 3 32 56 VTop 2
SYMATTR InstName R2
SYMATTR Value 10k
SYMBOL res 224 320 R90
WINDOW 0 0 56 VBottom 2
WINDOW 3 32 56 VTop 2
SYMATTR InstName R3
SYMATTR Value 10K
SYMBOL diode 448 320 R90
WINDOW 0 0 32 VBottom 2
WINDOW 3 32 32 VTop 2
SYMATTR InstName D1
SYMBOL Opamps\\UniversalOpamp2 336 224 R0
SYMATTR InstName U1
SYMBOL Opamps\\UniversalOpamp2 336 448 R0
SYMATTR InstName U2
TEXT 128 -80 Left 2 !.model MyDiode D(Ron=1m Roff=100Meg Vfwd=0)
TEXT 142 -24 Left 2 !.dc V1 -10 10 0.001
